Version 4
SHEET 1 992 820
WIRE 64 112 16 112
WIRE 176 112 144 112
WIRE 224 112 176 112
WIRE 336 112 304 112
WIRE 384 112 336 112
WIRE 496 112 464 112
WIRE 16 128 16 112
WIRE 176 144 176 112
WIRE 336 144 336 112
WIRE 64 336 16 336
WIRE 192 336 144 336
WIRE 240 336 192 336
WIRE 384 336 320 336
WIRE 16 352 16 336
WIRE 384 352 384 336
WIRE 192 368 192 336
WIRE 16 448 16 432
WIRE 192 448 192 432
WIRE 192 448 16 448
WIRE 384 448 384 432
WIRE 384 448 192 448
WIRE 16 464 16 448
WIRE 64 608 16 608
WIRE 176 608 144 608
WIRE 288 608 240 608
WIRE 336 608 288 608
WIRE 448 608 416 608
WIRE 544 608 512 608
WIRE 16 624 16 608
WIRE 544 640 544 608
WIRE 288 656 288 608
WIRE 288 656 240 656
WIRE 320 656 288 656
WIRE 240 672 240 656
WIRE 320 672 320 656
WIRE 288 752 240 752
WIRE 320 752 320 736
WIRE 320 752 288 752
WIRE 16 768 16 704
WIRE 288 768 288 752
WIRE 288 768 16 768
WIRE 544 768 544 720
WIRE 544 768 288 768
WIRE 16 800 16 768
FLAG 176 208 0
FLAG 336 208 0
FLAG 496 192 0
FLAG 16 208 0
FLAG 16 464 0
FLAG 16 800 0
SYMBOL ind 48 128 R270
WINDOW 0 32 56 VTop 2
WINDOW 3 5 56 VBottom 2
SYMATTR InstName L1
SYMATTR Value 4.56n
SYMBOL cap 160 144 R0
SYMATTR InstName C1
SYMATTR Value 2.18p
SYMBOL cap 320 144 R0
SYMATTR InstName C2
SYMATTR Value 2.18p
SYMBOL ind 208 128 R270
WINDOW 0 32 56 VTop 2
WINDOW 3 5 56 VBottom 2
SYMATTR InstName L2
SYMATTR Value 7.85n
SYMBOL ind 368 128 R270
WINDOW 0 32 56 VTop 2
WINDOW 3 5 56 VBottom 2
SYMATTR InstName L3
SYMATTR Value 4.66n
SYMBOL res 480 96 R0
SYMATTR InstName Rout
SYMATTR Value 50
SYMBOL 0_UofEvansville\\01_sources\\voltage_source_ue 16 160 R0
WINDOW 39 74 76 Center 0
SYMATTR SpiceLine Rser=50
SYMATTR InstName V1
SYMATTR Value2 AC 1V
SYMBOL 0_UofEvansville\\01_sources\\voltage_source_ue 16 384 R0
WINDOW 39 74 76 Center 0
SYMATTR SpiceLine Rser=75
SYMATTR InstName V2
SYMATTR Value2 AC 1V
SYMBOL ind 48 352 R270
WINDOW 0 32 56 VTop 2
WINDOW 3 5 56 VBottom 2
SYMATTR InstName L4
SYMATTR Value 8n
SYMBOL cap 176 368 R0
SYMATTR InstName C3
SYMATTR Value 0.7p
SYMBOL ind 224 352 R270
WINDOW 0 32 56 VTop 2
WINDOW 3 5 56 VBottom 2
SYMATTR InstName L5
SYMATTR Value 8n
SYMBOL res 368 336 R0
SYMATTR InstName Rout2
SYMATTR Value 75
SYMBOL 0_UofEvansville\\01_sources\\voltage_source_ue 16 656 R0
WINDOW 39 74 76 Center 0
SYMATTR SpiceLine Rser=75
SYMATTR InstName V3
SYMATTR Value2 AC 1V
SYMBOL ind 48 624 R270
WINDOW 0 32 56 VTop 2
WINDOW 3 5 56 VBottom 2
SYMATTR InstName L6
SYMATTR Value 50n
SYMBOL cap 240 592 R90
WINDOW 0 0 32 VBottom 2
WINDOW 3 32 32 VTop 2
SYMATTR InstName C4
SYMATTR Value 0.01p
SYMBOL ind 320 624 R270
WINDOW 0 32 56 VTop 2
WINDOW 3 5 56 VBottom 2
SYMATTR InstName L7
SYMATTR Value 50n
SYMBOL cap 512 592 R90
WINDOW 0 0 32 VBottom 2
WINDOW 3 32 32 VTop 2
SYMATTR InstName C5
SYMATTR Value 0.01p
SYMBOL res 528 624 R0
SYMATTR InstName Rout3
SYMATTR Value 75
SYMBOL ind 224 656 R0
SYMATTR InstName L8
SYMATTR Value 0.16n
SYMBOL cap 304 672 R0
SYMATTR InstName C6
SYMATTR Value 4.34p
TEXT 672 -8 Left 2 !.ac dec 1000 1Giga 10Giga
TEXT 680 80 Left 2 !.net I(Rout) V1
TEXT 696 368 Left 2 !.net I(Rout2) V2
TEXT 696 608 Left 2 !.net I(Rout3) V3
